Circuit: * C:\Users\sayed\Desktop\Programing\labs\Communication-Engineering-Lab\exps\EXP 7\encoder_collapsed.asc

V7: Removing PWL point (0.0009,1)
WARNING: Node NC_12 is floating.

Direct Newton iteration for .op point succeeded.
Ignoring empty pin current: Ix(u1:5)
Ignoring empty pin current: Ix(u1:6)
Ignoring empty pin current: Ix(u1:7)
Ignoring empty pin current: Ix(u1:8)
Ignoring empty pin current: Ix(u1:9)
Ignoring empty pin current: Ix(u1:10)
Ignoring empty pin current: Ix(u1:11)
Ignoring empty pin current: Ix(u1:12)
Ignoring empty pin current: Ix(u1:5)
Ignoring empty pin current: Ix(u1:6)
Ignoring empty pin current: Ix(u1:7)
Ignoring empty pin current: Ix(u1:8)
Ignoring empty pin current: Ix(u1:9)
Ignoring empty pin current: Ix(u1:10)
Ignoring empty pin current: Ix(u1:11)
Ignoring empty pin current: Ix(u1:12)

Date: Mon Nov 16 10:53:08 2020
Total elapsed time: 0.151 seconds.

tnom = 27
temp = 27
method = modified trap
totiter = 3993
traniter = 3980
tranpoints = 1778
accept = 1591
rejected = 187
matrix size = 29
fillins = 0
solver = Normal
Matrix Compiler1: 1.23 KB object code size  0.4/0.2/[0.2]
Matrix Compiler2: 2.14 KB object code size  0.3/0.3/[0.3]

