Circuit: * C:\Users\sayed\Desktop\Programing\labs\Communication-Engineering-Lab\exps\EXP 6\Draft1.asc

Limiting rise time of source v4 to 0.0001
Limiting fall time of source v4 to 0.0001
Limiting rise time of source v3 to 5e-005
Limiting fall time of source v3 to 5e-005
WARNING: Node N001 is floating.

WARNING: Less than two connections to node N002.  This node is used by A5.
Direct Newton iteration for .op point succeeded.

Date: Sun Nov 15 15:51:03 2020
Total elapsed time: 0.052 seconds.

tnom = 27
temp = 27
method = modified trap
totiter = 1430
traniter = 1427
tranpoints = 573
accept = 474
rejected = 99
matrix size = 15
fillins = 0
solver = Normal
Matrix Compiler1: 290 bytes object code size  0.1/0.1/[0.1]
Matrix Compiler2: 699 bytes object code size  0.1/0.1/[0.1]

