Circuit: * C:\Users\sayed\Desktop\Programing\labs\Communication-Engineering-Lab\exps\EXP 6\tdma.asc

Limiting rise time of source v5 to 2.5e-005
Limiting fall time of source v5 to 2.5e-005
Limiting rise time of source v4 to 0.0005
Limiting fall time of source v4 to 0.0005
WARNING: Node MP_05 is floating.
WARNING: Node U3:N005 is floating.

WARNING: Less than two connections to node U3:N005.  This node is used by C:U3:1.
Direct Newton iteration for .op point succeeded.

Date: Thu Oct 29 17:49:24 2020
Total elapsed time: 0.798 seconds.

tnom = 27
temp = 27
method = modified trap
totiter = 50979
traniter = 50938
tranpoints = 14256
accept = 10734
rejected = 3522
matrix size = 48
fillins = 0
solver = Normal
Thread vector: 10.9/5.6[3] 4.1/2.7[3] 0.8/3.3[1] 0.2/1.0[1]  2592/500
Matrix Compiler1: 2.85 KB object code size  0.9/0.4/[0.3]
Matrix Compiler2: 5.23 KB object code size  0.6/0.9/[0.4]

