Circuit: * C:\Users\sayed\Desktop\Programing\Communication-Engineering-Lab\Exp 1 familiarization\integrator.asc

.OP point found by inspection.

Date: Tue Sep 15 21:20:12 2020
Total elapsed time: 0.038 seconds.

tnom = 27
temp = 27
method = modified trap
totiter = 898
traniter = 898
tranpoints = 450
accept = 276
rejected = 174
matrix size = 3
fillins = 0
solver = Normal
Matrix Compiler1: 50 bytes object code size  0.0/0.0/[0.0]
Matrix Compiler2: 175 bytes object code size  0.1/0.1/[0.0]

